7
Optmized geometry of 7 particles giving min_potential = -16.505384164510065
C 5.763751914921327  5.24276613368519  5.5725122256286035
C 4.973204702220679  6.400837447619048  4.414071795904187
C 4.7751911777162235  5.655269123573753  5.231683488024464
C 6.084139770666488  6.449140375019814  4.249602490589137
C 5.673505636964262  6.314482650227051  5.277658607035108
C 6.572727226898716  5.733408246078062  4.965548402521962
C 5.594098746488777  5.478080762902038  4.495711285586088
