7
Optmized geometry of 7 particles giving min_potential = -16.505384167938956
C 5.109571578004666  1.5650658667937498  6.227351182120734
C 5.4312711609665225  2.626959253729687  6.115332216919645
C 5.543785430247741  2.078289021650969  7.1171352899964395
C 6.306628368357445  2.8182712193094233  6.779265689770911
C 4.540154326241286  2.3867518196331154  6.741325920208558
C 6.201312616955938  1.8317596740487385  6.250799502833301
C 5.279975974604628  3.1612746399640352  7.08242827792553
